Circuit: * D:\Dropbox\work\heig-vd\teaching\rbt\eda\drive\MotionBoard\resolver.asc

WARNING: Node OUTPUT is floating.

WARNING: Less than two connections to node OUTPUT.  This node is used by C8.
Direct Newton iteration for .op point succeeded.

Date: Mon Jun 06 11:15:11 2022
Total elapsed time: 0.124 seconds.

tnom = 27
temp = 27
method = modified trap
totiter = 15999
traniter = 15981
tranpoints = 6796
accept = 5082
rejected = 1714
matrix size = 23
fillins = 20
solver = Normal
Thread vector: 4.7/2.1[3] 1.0/0.7[3] 0.8/0.4[3] 0.1/0.4[1]  2592/500
Matrix Compiler1: 2.01 KB object code size  0.3/0.2/[0.1]
Matrix Compiler2: 2.36 KB object code size  0.2/0.2/[0.1]

